12
    
C          0.6614408000      0.0000000000      0.0000000000 
C         -0.6614408000      0.0000000000      0.0000000000 
H          1.2309193000     -0.9231104000      0.0000000000 
H          1.2309193000      0.9231104000      0.0000000000 
H         -1.2309193000     -0.9231104000      0.0000000000 
H         -1.2309193000      0.9231104000      0.0000000000 
C         -3.4049271003     -0.3459089405     -2.8897695768 
C         -3.9666143017      0.3459089405     -3.8674767084 
H         -3.8254091727     -1.2827691179     -2.5405899565 
H         -2.5008510542     -0.0046809180     -2.3971759187 
H         -4.8706903478      0.0046809180     -4.3600703665 
H         -3.5461322293      1.2827691179     -4.2166563287 
