12
    
C          0.6614408000      0.0000000000      0.0000000000 
C         -0.6614408000      0.0000000000      0.0000000000 
H          1.2309193000     -0.9231104000      0.0000000000 
H          1.2309193000      0.9231104000      0.0000000000 
H         -1.2309193000     -0.9231104000      0.0000000000 
H         -1.2309193000      0.9231104000      0.0000000000 
C         -1.9411434538      3.2424667291      2.2974661076 
C         -2.0794222345      1.9268320129      2.2974661076 
H         -2.7796085742      3.9032083112      2.4893915517 
H         -0.9836249084      3.7144428214      2.1055406635 
H         -3.0369407799      1.4548559206      2.4893915517 
H         -1.2409571141      1.2660904309      2.1055406635 
