12
    
C          0.6614408000      0.0000000000      0.0000000000 
C         -0.6614408000      0.0000000000      0.0000000000 
H          1.2309193000     -0.9231104000      0.0000000000 
H          1.2309193000      0.9231104000      0.0000000000 
H         -1.2309193000     -0.9231104000      0.0000000000 
H         -1.2309193000      0.9231104000      0.0000000000 
C          0.9578847323     -0.4682184347     -4.3858263717 
C          1.4240806044     -0.0081746326     -3.2364627057 
H          0.9643526632     -1.5272525471     -4.6200132355 
H          0.5500376820      0.1947332855     -5.1412033456 
H          1.8319276547     -0.6711263528     -2.4810857318 
H          1.4176126735      1.0508594798     -3.0022758420 
